{
  "doc_id": "52934",
  "text": "As shown for other substrates which become modified with ubiquitin-like modifiers, such as p53 by SUMO or USE1 and p62 by FAT10 [CITATION_1] [CITATION_2] [CITATION_3] , only a small portion of UBE1 appears to become modified with FAT10, which makes the search for functional consequences even more challenging. Since it was published for several different FAT10 substrates, such as p62 and USE1 [CITATION_4] [CITATION_5] that FAT10ylation targets substrate proteins for proteasomal degradation, we investigated whether UBE1 is also guided to degradation by the proteasome upon conjugation with FAT10 and we show that overexpressed UBE1-FAT10 conjugate amounts increase upon inhibition of the proteasome by treatment with MG132 (Fig. 1) . Additional cycloheximide chase data showed that the UBE1-FAT10 conjugate is also degraded by about 40% within a time period of five hours ( Fig. 5 and S3 Fig.) . Blockage of the proteasome with MG132, bortezomib or lactacystin rescued the UBE1-FAT10 conjugate from degradation ( Fig. 5 and S3 Fig.) . These data confirmed a previous publication of our group where we knocked down Rpn10, the docking site of FAT10 at the proteasome, and where we could show an accumulation of the UBE1-FAT10 conjugate upon this knockdown [CITATION_6] . To investigate if FAT10ylation of UBE1 might have additional functional consequences besides degradation by the proteasome, we performed several additional experiments. The up-regulation of FAT10 expression by overexpression or treatment with proinflammatory cytokines did not influence the bulk UBE1 protein level in cells. We previously obtained the same results for the E2 conjugating enzyme USE1 [CITATION_7] . Up-regulation of FAT10 led also here to the modification of only a small amount of USE1 but also did not alter the amount of the unconjugated USE1. We suggest that this is true in case of UBE1 as well and that this prevents the identification of functional consequences when at the same time most of the protein remains unmodified and active. Nevertheless we tested whether FAT10ylation of UBE1 has an impact on bulk ubiquitin conjugate formation, maybe due to a functional impairment of FAT10ylated UBE1 or because of slightly reduced UBE1 levels due to degradation of the UBE1-FAT10 conjugate. However, we detected no decrease of the bulk ubiquitin conjugates upon overexpression of FAT10 or upon induction of endogenous FAT10 expression with cytokines (Fig. 4) . The expression of both, FAT10 and the E2 conjugating enzyme USE1 seems to be regulated during the cell cycle [CITATION_8] [CITATION_9] . In addition, UBE1 is mainly found in the nucleus [CITATION_10] [CITATION_11] [CITATION_12] whereas FAT10 seems to be more abundant in the cytoplasm [CITATION_13] . All experiments in the current study were performed with unsynchronized cells. We therefore wondered if FAT10ylation of UBE1 might have a specific function during the cell cycle and investigated if the formation of the UBE1-FAT10 conjugate might happen specifically during a certain phase of the cell cycle such as e.g. mitosis, where due to the breakdown of the nuclear membrane both proteins would come in close proximity. However, our preliminary results provided no evidence for a cell cycle regulated formation of the UBE1-FAT10 conjugate (data not shown). Other functional consequences of UBE1 FAT10ylation might be that FAT10ylation could change the cellular localization of UBE1 by e.g. masking the nuclear localization sequence of UBE1 or that FAT10ylation induces conformational changes within UBE1. Changes in the localization or conformation of UBE1 could in turn result in a gain of function such as e.g. altering the set of UBE1 interacting E2 conjugating enzymes.",
  "correct_citation": {
    "[CITATION_1]": "31012446",
    "[CITATION_2]": "20324526",
    "[CITATION_3]": "19830761",
    "[CITATION_4]": "205134704",
    "[CITATION_5]": "20324526",
    "[CITATION_6]": "205312465",
    "[CITATION_7]": "205134704",
    "[CITATION_8]": "8108319",
    "[CITATION_9]": "18557394",
    "[CITATION_10]": "9305926",
    "[CITATION_11]": "24772430",
    "[CITATION_12]": "39496303",
    "[CITATION_13]": "28037893"
  },
  "citation_spans": [
    {
      "citation_id": "[CITATION_1]",
      "span_text": "As shown for other substrates which become modified with ubiquitin-like modifiers, such as p53 by SUMO or USE1 and p62 by FAT10    , only a small portion of UBE1 appears to become modified with FAT10, which makes the search for functional consequences even more challenging."
    },
    {
      "citation_id": "[CITATION_2]",
      "span_text": "As shown for other substrates which become modified with ubiquitin-like modifiers, such as p53 by SUMO or USE1 and p62 by FAT10    , only a small portion of UBE1 appears to become modified with FAT10, which makes the search for functional consequences even more challenging."
    },
    {
      "citation_id": "[CITATION_3]",
      "span_text": "As shown for other substrates which become modified with ubiquitin-like modifiers, such as p53 by SUMO or USE1 and p62 by FAT10    , only a small portion of UBE1 appears to become modified with FAT10, which makes the search for functional consequences even more challenging."
    },
    {
      "citation_id": "[CITATION_4]",
      "span_text": "Since it was published for several different FAT10 substrates, such as p62 and USE1   that FAT10ylation targets substrate proteins for proteasomal degradation, we investigated whether UBE1 is also guided to degradation by the proteasome upon conjugation with FAT10 and we show that overexpressed UBE1-FAT10 conjugate amounts increase upon inhibition of the proteasome by treatment with MG132 (Fig. 1) ."
    },
    {
      "citation_id": "[CITATION_5]",
      "span_text": "Since it was published for several different FAT10 substrates, such as p62 and USE1   that FAT10ylation targets substrate proteins for proteasomal degradation, we investigated whether UBE1 is also guided to degradation by the proteasome upon conjugation with FAT10 and we show that overexpressed UBE1-FAT10 conjugate amounts increase upon inhibition of the proteasome by treatment with MG132 (Fig. 1) ."
    },
    {
      "citation_id": "[CITATION_6]",
      "span_text": "These data confirmed a previous publication of our group where we knocked down Rpn10, the docking site of FAT10 at the proteasome, and where we could show an accumulation of the UBE1-FAT10 conjugate upon this knockdown  ."
    },
    {
      "citation_id": "[CITATION_7]",
      "span_text": "We previously obtained the same results for the E2 conjugating enzyme USE1  ."
    },
    {
      "citation_id": "[CITATION_8]",
      "span_text": "The expression of both, FAT10 and the E2 conjugating enzyme USE1 seems to be regulated during the cell cycle   ."
    },
    {
      "citation_id": "[CITATION_9]",
      "span_text": "The expression of both, FAT10 and the E2 conjugating enzyme USE1 seems to be regulated during the cell cycle   ."
    },
    {
      "citation_id": "[CITATION_10]",
      "span_text": "In addition, UBE1 is mainly found in the nucleus    whereas FAT10 seems to be more abundant in the cytoplasm  ."
    },
    {
      "citation_id": "[CITATION_11]",
      "span_text": "In addition, UBE1 is mainly found in the nucleus    whereas FAT10 seems to be more abundant in the cytoplasm  ."
    },
    {
      "citation_id": "[CITATION_12]",
      "span_text": "In addition, UBE1 is mainly found in the nucleus    whereas FAT10 seems to be more abundant in the cytoplasm  ."
    },
    {
      "citation_id": "[CITATION_13]",
      "span_text": "In addition, UBE1 is mainly found in the nucleus    whereas FAT10 seems to be more abundant in the cytoplasm  ."
    }
  ],
  "bib_entries": {
    "205312465": {
      "title": "FAT10 and NUB1L bind to the VWA domain of Rpn10 and Rpn1 to enable proteasome-mediated proteolysis",
      "abstract": "FAT10 is the only ubiquitin-like modifier that can target proteins for degradation by the proteasome in a ubiquitin-independent manner. The degradation of FAT10-linked proteins by the proteasome is strongly accelerated by the ubiquitin-like-ubiquitin-associated protein NEDD8 ultimate buster-1 long (NUB1L). Here we show how FAT10 and NUB1L dock with the 26S proteasome to initiate proteolysis. We identify the 26S proteasome subunit hRpn10/S5a as the receptor for FAT10, whereas NUB1L can bind to both Rpn10 and Rpn1/S2. Unexpectedly, FAT10 and NUB1L both interact with hRpn10 via the VWA domain. FAT10 degradation in yeast shows that human Rpn10 can functionally reconstitute Rpn10-deficient yeast and that the VWA domain of hRpn10 suffices to enable FAT10 degradation. Depletion of hRpn10 causes an accumulation of FAT10-conjugates also in human cells. In conclusion, we identify the VWA domain of hRpn10 as a receptor for ubiquitin-like proteins within the 26S proteasome and elucidate how FAT10 mediates efficient proteolysis by the proteasome."
    },
    "19830761": {
      "title": "Protein modification by SUMO",
      "abstract": "Small ubiquitin-related modifier (SUMO) family proteins function by becoming covalently attached to other proteins as post-translational modifications. SUMO modifies many proteins that participate in diverse cellular processes, including transcriptional regulation, nuclear transport, maintenance of genome integrity, and signal transduction. Reversible attachment of SUMO is controlled by an enzyme pathway that is analogous to the ubiquitin pathway. The functional consequences of SUMO attachment vary greatly from substrate to substrate, and in many cases are not understood at the molecular level. Frequently SUMO alters interactions of substrates with other proteins or with DNA, but SUMO can also act by blocking ubiquitin attachment sites. An unusual feature of SUMO modification is that, for most substrates, only a small fraction of the substrate is sumoylated at any given time. This review discusses our current understanding of how SUMO conjugation is controlled, as well as the roles of SUMO in a number of biological processes."
    },
    "205134704": {
      "title": "Investigations into the auto-FAT10ylation of the bispecific E2 conjugating enzyme UBA6-specific E2 enzyme 1",
      "abstract": "UNLABELLED ::: The cytokine-inducible ubiquitin-like modifier HLA-F adjacent transcript 10 (FAT10) targets its substrates for degradation by the proteasome. FAT10 is conjugated to its substrates via the bispecific, ubiquitin-activating and FAT10-activating enzyme UBA6, the likewise bispecific conjugating enzyme UBA6-specific E2 enzyme 1 (USE1), and possibly E3 ligases. By MS analysis, we found that USE1 undergoes self-FAT10ylation in cis, mainly at Lys323. Mutation of Lys323 to an arginine did not abolish auto-FAT10ylation of USE1, but every other lysine could instead be modified with FAT10. Similarly to bulk FAT10 substrates, FAT10ylation of USE1 accelerated its proteasomal degradation. Interestingly, the USE1-FAT10 conjugate continued to be an active E2 enzyme, because both FAT10 and ubiquitin could still be thioester-linked to the USE1-FAT10 conjugate. We therefore suggest that the major function of USE1 auto-FAT10ylation is to serve as a negative feedback mechanism to limit the conjugation of FAT10 upon its cytokine-mediated induction by reducing the amount of USE1 through proteasomal degradation of the USE1-FAT10 conjugate. ::: ::: ::: STRUCTURED DIGITAL ABSTRACT ::: •USE1 physically interacts with FAT10 by anti bait coimmunoprecipitation (View interaction) •USE1 physically interacts with FAT10 by anti tag coimmunoprecipitation (View interaction)."
    },
    "20324526": {
      "title": "The proteomic analysis of endogenous FAT10 substrates identifies p62/SQSTM1 as a substrate of FAT10ylation",
      "abstract": "FAT10 is a ubiquitin-like modifier proposed to function in apoptosis induction, cell cycle control and NF-κB activation. Upon induction by pro-inflammatory cytokines, hundreds of endogenous substrates become covalently conjugated to FAT10 leading to their proteasomal degradation. Nevertheless, only three substrates have been identified so far to which FAT10 becomes covalently attached through a non-reducible isopeptide bond, and these are the FAT10-conjugating enzyme USE1 which auto-FAT10ylates itself in cis, the tumor suppressor p53 and the ubiquitin-activating enzyme UBE1 (UBA1). To identify additional FAT10 substrates and interaction partners, we used a new monoclonal FAT10-specific antibody to immunopurify endogenous FAT10 conjugates from interferon (IFN)γ-and tumor necrosis factor (TNF)α-stimulated cells for identification by mass spectrometry. In addition to two already known FAT10-interacting proteins, histone deacetylase 6 and UBA6, we identified 569 novel FAT10-interacting proteins involved in different functional pathways such as autophagy, cell cycle regulation, apoptosis and cancer. Thirty-one percent of all identified proteins were categorized as putative covalently linked substrates. One of the identified proteins, the autophagosomal receptor p62/SQSTM1, was further investigated. p62 becomes covalently mono-FAT10ylated at several lysines, and FAT10 colocalizes with p62 in p62 bodies. Strikingly, FAT10ylation of p62 leads to its proteasomal degradation, and prolonged induction of endogenous FAT10 expression by pro-inflammatory cytokines leads to a decrease of endogenous p62. The elucidation of the FAT10 degradome should enable a better understanding of why FAT10 has evolved as an additional transferable tag for proteasomal degradation."
    },
    "28037893": {
      "title": "The ubiquitin-like modifier FAT10 interacts with HDAC6 and localizes to aggresomes under proteasome inhibition",
      "abstract": "During misfolded-protein stress, the cytoplasmic protein histone deacetylase 6 (HDAC6) functions as a linker between the dynein motor and polyubiquitin to mediate the transport of polyubiquitylated cargo to the aggresome. Here, we identify a new binding partner of HDAC6, the ubiquitin-like modifier FAT10 (also known as UBD), which is cytokine-inducible and - similar to ubiquitin - serves as a signal for proteasomal degradation. In vivo, the two proteins only interacted under conditions of proteasome impairment. The binding of HDAC6 to FAT10 was mediated by two separate domains: the C-terminal ubiquitin-binding zinc-finger (BUZ domain) of HDAC6 and its first catalytic domain, even though catalytic activity of HDAC6 was not required for this interaction. Both endogenous and ectopically expressed FAT10 as well as the model conjugate FAT10-GFP localized to the aggresome in a microtubule-dependent manner. Furthermore, FAT10-containing as well as ubiquitin-containing aggresomes were reduced in both size and number in HDAC6-deficient fibroblasts. We conclude that, if FAT10 fails to subject its target proteins to proteasomal degradation, an alternative route is taken to ensure their sequestration and possibly also their subsequent removal by transporting them to the aggresome via the association with HDAC6."
    },
    "18557394": {
      "title": "Profiling of ubiquitin-like modifications reveals features of mitotic control",
      "abstract": "Ubiquitin and ubiquitin-like (Ubl) protein modifications affect protein stability, activity, and localization, but we still lack broad understanding of the functions of Ubl modifications. We have profiled the protein targets of ubiquitin and six additional Ubls in mitosis using a functional assay that utilizes active mammalian cell extracts and protein microarrays and identified 1,500 potential substrates; 80-200 protein targets were exclusive to each Ubl. The network structure is nonrandom, with most targets mapping to a single Ubl. There are distinct molecular functions for each Ubl, suggesting divergent biological roles. Analysis of differential profiles between mitosis and G1 highlighted a previously underappreciated role for the Ubl, FAT10, in mitotic regulation. In addition to its role as a resource for Ubl modifications, our study provides a systematic approach to analyze changes in posttranslational modifications at various cellular states."
    },
    "24772430": {
      "title": "Ubiquitin-activating enzyme UBA1 is required for cellular response to DNA damage",
      "abstract": "The cellular DNA damage response (DDR) machinery that maintains genomic integrity and prevents severe pathologies, including cancer, is orchestrated by signaling through protein modifications. Protein ubiquitylation regulates repair of DNA double-strand breaks (DSBs), toxic lesions caused by various metabolic as well as environmental insults such as ionizing radiation (IR). Whereas several components of the DSB-evoked ubiquitylation cascade have been identified, including RNF168 and BRCA1 ubiquitin ligases, whose genetic defects predispose to a syndrome mimicking ataxia-telangiectasia and cancer, respectively, the identity of the apical E1 enzyme involved in DDR has not been established. Here, we identify ubiquitin-activating enzyme UBA1 as the E1 enzyme required for responses to IR and replication stress in human cells. We show that siRNA-mediated knockdown of UBA1, but not of another UBA family member UBA6, impaired formation of both ubiquitin conjugates at the sites of DNA damage and IR-induced foci (I..."
    },
    "9305926": {
      "title": "Proteomic characterization of the human sperm nucleus",
      "abstract": "Generating a catalogue of sperm nuclear proteins is an important first step towards the clarification of the function of the paternal chromatin transmitted to the oocyte upon fertilization. With this goal, sperm nuclei were obtained through CTAB treatment and isolated to over 99.9% purity without any tail fragments, acrosome or mitochondria as assessed by optical microscopy and transmission electron microscopy. The nuclear proteins were extracted and separated in 2-D and 1-D gels and the 2-D spots and 1-D bands were excised and analysed to identify the proteins through LC-MS/MS. With this approach, 403 different proteins have been identified from the isolated sperm nuclei. The most abundant family of proteins identified are the histones, for which several novel members had not been reported previously as present in the spermatogenic cell line or in the human mature spermatozoa. More than half (52.6%) of the proteins had not been detected in the previous human whole sperm cell proteome reports. Of relevance, several chromatin-related proteins, such as zinc fingers and transcription factors, so far not known to be associated with the sperm chromatin, have also been detected. This provides additional information about the nuclear proteins that are potentially relevant for epigenetic marking, proper fertilization and embryo development."
    },
    "31012446": {
      "title": "USE1 is a bispecific conjugating enzyme for ubiquitin and FAT10, which FAT10ylates itself in cis",
      "abstract": "The ubiquitin-like modifier FAT10 targets proteins for degradation by the proteasome and is activated by the E1 enzyme UBA6. In this study, we identify the UBA6-specific E2 enzyme (USE1) as an interaction partner of FAT10. Activated FAT10 can be transferred from UBA6 onto USE1 in vitro, and endogenous USE1 and FAT10 can be coimmunoprecipitated from intact cells. Small interfering RNA-mediated downregulation of USE1 mRNA resulted in a strong reduction of FAT10 conjugate formation under endogenous conditions, suggesting that USE1 is a major E2 enzyme in the FAT10 conjugation cascade. Interestingly, USE1 is not only the first E2 enzyme but also the first known substrate of FAT10 conjugation, as it was efficiently auto-FAT10ylated in cis but not in trans."
    },
    "8108319": {
      "title": "FAT10, a gene up-regulated in various cancers, is cell-cycle regulated",
      "abstract": "Background ::: FAT10 is a member of the ubiquitin-like-modifier family of proteins. Over-expression of the FAT10 gene was observed in the tumors of several epithelial cancers. High FAT10 expression was found to lead to increased chromosome instability via the reduction in the kinetochore localization of MAD2 during the prometaphase stage of the cell-cycle. FAT10 expression was also previously reported to be regulated by cytokines and p53."
    },
    "39496303": {
      "title": "Immunoelectron microscopic localization of the ubiquitin-activating enzyme E1 in HepG2 cells",
      "abstract": "Abstract ::: As the first enzyme in the ubiquitin system the ubiquitin-activating enzyme E1 plays a pivotal role in all pathways of protein ubiquitination. In an effort to learn more about the cell biology of this pathway, we have purified the 110-kDa enzyme to homogeneity and generated a panel of distinct monoclonal antibodies to it. Using quantitative electron microscopic immunolocalization with these anti-E1 monoclonal antibodies, we find that E1 is abundant both within the cytoplasm and nucleus. Within the cytoplasm, E1 was found throughout the cytoplasmic volume as well as enriched along the cytoplasmic face of the rough endoplasmic reticulum and associated with the dense material along the desmosomal junctions. E1 was also found associated with the cytoplasmic surface of endosomal/lysosomal vacuoles. Interestingly, E1 was also found within the mitochondria. The lumen of rough endoplasmic reticulum, Golgi complex, endosomes, and lysosomes were negative. The specific localization of E1 to distinct subcellular organelles suggests that E1 may play multiple physiological roles within the cell."
    }
  },
  "generator": "fallback_v4"
}