{
  "text": "In this section, we formulate an optimization problem to determine the operating points of multiple HVDCs, including LCC and VSC HVDCs. This study is different from previous studies covering various type of HVDCs [CITATION_1] [CITATION_2] [CITATION_3] [CITATION_4] [CITATION_5] , because HVDCs can be regarded as active and reactive power sources in MIDC systems. Also, only the outputs of multiple HVDCs are considered in the optimization problem. In other words, generator outputs are considered as a constant in the problem.",
  "correct_citation": {
    "[CITATION_1]": "13187128",
    "[CITATION_2]": "40684502",
    "[CITATION_3]": "20702443",
    "[CITATION_4]": "22216909",
    "[CITATION_5]": "33852542"
  },
  "bib_entries": {
    "20702443": {
      "title": "Modeling of HVDC system to improve estimation of transient DC current and voltages for AC line-to-ground fault-an actual case study in Korea",
      "abstract": "A new modeling method for high voltage direct current (HVDC) systems and associated controllers is presented for the power system simulator for engineering (PSS/E) simulation environment. The aim is to improve the estimation of the transient DC voltage and current in the event of an AC line-to-ground fault. The proposed method consists primary of three interconnected modules for (a) equation conversion; (b) control-mode selection; and (c) DC-line modeling. Simulation case studies were carried out using PSS/E and a power systems computer aided design/electromagnetic transients including DC (PSCAD/EMTDC) model of the Jeju– Haenam HVDC system in Korea. The simulation results are compared with actual operational data and the PSCAD/EMTDC simulation results for an HVDC system during single-phase and three-phase line-to-ground faults, respectively. These comparisons show that the proposed PSS/E modeling method results in the improved estimation of the dynamic variation in the DC voltage and current in the event of an AC network fault, with significant gains in computational efficiency, making it suitable for real-time analysis of HVDC systems."
    },
    "13187128": {
      "title": "Contribution of VSC-HVDC to frequency regulation of power systems with offshore wind generation",
      "abstract": "Modern large wind farms are required to provide frequency regulation service like conventional synchronous generation units. The frequency support capability of modern wind farms has been widely investigated and implemented. Remotely located large offshore wind farms are probably connected to the onshore system grid through voltage-source converter-based–high voltage direct current (VSC-HVdc) transmission systems. Due to the decoupling of VSC-HVdc and signal transmission delay, offshore wind farms may not be able to respond to the onshore grid frequency excursion in time and, consequently, the stability and security of the power system will be put at risk, especially for those with high wind penetration. This paper proposes a coordinated control scheme to allow VSC-HVdc link to contribute to the system frequency regulation by adjusting its dc-link voltage. By means of this approach, the dc capacitors of VSC-HVdc are controlled to absorb or release energy so as to provide frequency support. To further enhance the system frequency response, the frequency support from VSC-HVdc is also finely coordinated with that from offshore wind farm according to the latency of offshore wind farm responding to onshore grid frequency excursion. The control scheme is evaluated for both underfrequency and overfrequency events, and results are presented to demonstrate its effectiveness."
    },
    "33852542": {
      "title": "Minimization of transmission loss in meshed AC/DC grids with VSC-MTDC networks",
      "abstract": "The paper considers the optimal power flow (OPF) of a meshed AC/DC power transmission network with voltage source converter based multi-terminal DC (VSC-MTDC) networks. The OPF problem is formulated to minimize the transmission loss of the whole AC/DC network with two different VSC control strategies considered, constant DC voltage control (master-slave control) and DC voltage droop control. In addition, Grid Code compliance of wind farms is also embedded in the OPF formulation. The presented OPF is evaluated and demonstrated in the paper by two example meshed AC/DC power systems."
    },
    "22216909": {
      "title": "Optimum power transmission-based droop control design for multi-terminal HVDC of offshore wind farm",
      "abstract": "Power generation through wind is expected to play a major role in the world's future energy portfolio. Nevertheless, wind power integration remains a challenging research area due to the special characteristics of wind power generation. Specifically, offshore wind has received significant attention worldwide due to the vast generation potential available. The electrical infrastructure of offshore wind farms is thus of significant importance. The multi-terminal HVDC solution represents a preferable solution and has shown promise in solving wind farm interconnection problems. Droop control techniques have been proposed as a means to regulate the DC voltage and facilitate the automatic coordination between different converters without the need for fast communication between units. Different methodologies have been developed to select the droop gains to satisfy the system performance specifications. In this work, a control design methodology is proposed for power sharing among the multi-terminal HVDC feeders providing that the power transmission efficiency is optimized. A simulation study on a 400-kV/1000-MW four-terminal HVDC transmission topology is conducted to ensure the validity of the proposed methodology."
    },
    "40684502": {
      "title": "Fast frequency response from offshore multiterminal VSC-HVDC schemes",
      "abstract": "This paper analyzes the frequency support characteristics of multiterminal voltage source converter HVdc (VSC–HVdc) (MTDC) schemes using the energy transferred from wind turbine rotating mass and other ac systems. An alternative coordinated control (ACC) scheme that gives priority to a frequency versus active power droop fitted to onshore VSCs is proposed to: transfer wind turbine recovery power to undisturbed ac grids, and allow correct control operation of MTDC systems during multiple power imbalances on different ac grids. The fast frequency response capability of MTDC systems equipped with the proposed ACC scheme is compared against a coordinated control scheme, which uses a frequency versus dc voltage droop. The frequency control schemes are demonstrated on an experimental test rig, which represents a three-terminal HVdc system. Also, the MTDC frequency support capability when wind farms do not provide extra power is tested using a four-terminal HVdc system."
    }
  }
}