{
  "doc_id": "54274",
  "text": "The infiltration flux of a disconnected system needs to be quantified in order to calculate the height of the capillary zone. This flux can be calculated according to methods described in [CITATION_1] . In disconnected systems, the flow regime between the clogging layer beneath the surface water body and the groundwater table is unsaturated. The flux through this unsaturated zone must be equal to the infiltration flux through the clogging layer. This flux is given by the head gradient through the clogging layer and its hydraulic conductivity. Clearly, the negative pressure at the base of the clogging layer that occurs at disconnection Fig. 1 . Change of infiltration rate from surface water to groundwater as a function of the water table depth (e.g. measured in a nearby borehole). Three different flow regimes can be identified. Only in the connected state is the infiltration rate between the surface water body and the groundwater proportional to the head difference. In the transition zone, the flow rate is no longer a linear function of the head difference. If the groundwater table is sufficiently far below the surface water body, the infiltration rate asymptotically approaches a constant value and changes in the groundwater table no longer significantly affect the infiltration rate. In this final regime the surface water and the groundwater are disconnected.",
  "correct_citation": {
    "[CITATION_1]": "130940142"
  },
  "citation_spans": [
    {
      "citation_id": "[CITATION_1]",
      "span_text": "This flux can be calculated according to methods described in"
    }
  ],
  "bib_entries": {
    "130940142": {
      "title": "Modelling stream-aquifer seepage in an alluvial aquifer: an improved losing-stream package for MODFLOW",
      "abstract": "Seepage from a stream, which partially penetrates an unconfined alluvial aquifer, is studied for the case when the water table falls below the streambed level. Inadequacies are identified in current modelling approaches to this situation. A simple and improved method of incorporating such seepage into groundwater models is presented. This considers the effect on seepage flow of suction in the unsaturated part of the aquifer below a disconnected stream and allows for the variation of seepage with water table fluctuations. The suggested technique is incorporated into the saturated code MODFLOW and is tested by comparing its predictions with those of a widely used variably saturated model, SWMS_2D simulating water flow and solute transport in two-dimensional variably saturated media. Comparisons are made of both seepage flows and local mounding of the water table. The suggested technique compares very well with the results of variably saturated model simulations. Most currently used approaches are shown to underestimate the seepage and associated local water table mounding, sometimes substantially. The proposed method is simple, easy to implement and requires only a small amount of additional data about the aquifer hydraulic properties."
    }
  },
  "generator": "fallback"
}